@<TRIPOS>MOLECULE
*****
 31 31 0 0 0
SMALL
GASTEIGER

@<TRIPOS>ATOM
      1 C           1.6910    2.8181    2.3372 C.3     1  UNL1       -0.0493
      2 C           1.9304    1.4626    1.6870 C.3     1  UNL1        0.0121
      3 N           2.8481    1.5242    0.5485 N.am    1  UNL1       -0.2981
      4 C           2.2757    1.5365   -0.8049 C.3     1  UNL1        0.0121
      5 C           1.2842    2.6650   -1.0465 C.3     1  UNL1       -0.0493
      6 C           4.2164    1.5520    0.8378 C.2     1  UNL1        0.2466
      7 O           4.6663    1.6886    1.9742 O.2     1  UNL1       -0.2700
      8 C           5.1961    1.3917   -0.2567 C.ar    1  UNL1        0.0371
      9 C           6.1403    2.3977   -0.4720 C.ar    1  UNL1       -0.0496
     10 C           7.0888    2.2452   -1.4821 C.ar    1  UNL1       -0.0608
     11 C           7.1018    1.0853   -2.2621 C.ar    1  UNL1       -0.0588
     12 C           6.1774    0.0576   -2.0304 C.ar    1  UNL1       -0.0497
     13 C           6.1896   -1.1929   -2.8585 C.3     1  UNL1       -0.0397
     14 C           5.2251    0.2147   -1.0152 C.ar    1  UNL1       -0.0467
     15 H           1.0105    2.7119    3.1879 H       1  UNL1        0.0245
     16 H           1.2459    3.5296    1.6364 H       1  UNL1        0.0245
     17 H           2.6240    3.2572    2.7036 H       1  UNL1        0.0245
     18 H           0.9837    1.0185    1.3604 H       1  UNL1        0.0462
     19 H           2.3554    0.7834    2.4361 H       1  UNL1        0.0462
     20 H           1.7868    0.5681   -0.9593 H       1  UNL1        0.0462
     21 H           3.0607    1.6299   -1.5575 H       1  UNL1        0.0462
     22 H           0.3947    2.5624   -0.4179 H       1  UNL1        0.0245
     23 H           0.9524    2.6571   -2.0897 H       1  UNL1        0.0245
     24 H           1.7405    3.6384   -0.8399 H       1  UNL1        0.0245
     25 H           6.1386    3.2902    0.1486 H       1  UNL1        0.0625
     26 H           7.8249    3.0259   -1.6574 H       1  UNL1        0.0618
     27 H           7.8509    0.9843   -3.0450 H       1  UNL1        0.0620
     28 H           7.0541   -1.2215   -3.5298 H       1  UNL1        0.0278
     29 H           5.2828   -1.2467   -3.4693 H       1  UNL1        0.0278
     30 H           6.2415   -2.0752   -2.2123 H       1  UNL1        0.0278
     31 H           4.5102   -0.5779   -0.8072 H       1  UNL1        0.0628
@<TRIPOS>BOND
     1     1     2    1
     2     1    15    1
     3     1    16    1
     4     1    17    1
     5     2     3    1
     6     2    18    1
     7     2    19    1
     8     3     4    1
     9     3     6   am
    10     4     5    1
    11     4    20    1
    12     4    21    1
    13     5    22    1
    14     5    23    1
    15     5    24    1
    16     6     7    2
    17     6     8    1
    18     8     9   ar
    19     8    14   ar
    20     9    10   ar
    21     9    25    1
    22    10    11   ar
    23    10    26    1
    24    11    12   ar
    25    11    27    1
    26    12    13    1
    27    12    14   ar
    28    13    28    1
    29    13    29    1
    30    13    30    1
    31    14    31    1
