@<TRIPOS>MOLECULE
*****
 34 33 0 0 0
SMALL
GASTEIGER

@<TRIPOS>ATOM
      1 O           0.8899   -0.0763   -0.0138 O.3     1  UNL1       -0.3950
      2 C           2.3102   -0.0478    0.0149 C.3     1  UNL1        0.0442
      3 C           2.8429   -1.0687   -0.9806 C.3     1  UNL1       -0.0297
      4 C           4.3696   -1.0906   -1.0028 C.3     1  UNL1       -0.0510
      5 C           4.8973   -2.1181   -2.0054 C.3     1  UNL1       -0.0530
      6 C           6.4266   -2.1386   -2.0275 C.3     1  UNL1       -0.0531
      7 C           6.9554   -3.1654   -3.0303 C.3     1  UNL1       -0.0531
      8 C           8.4847   -3.1835   -3.0533 C.3     1  UNL1       -0.0530
      9 C           9.0143   -4.2099   -4.0560 C.3     1  UNL1       -0.0510
     10 C          10.5411   -4.2243   -4.0821 C.3     1  UNL1       -0.0297
     11 C          11.0762   -5.2451   -5.0777 C.3     1  UNL1        0.0442
     12 O          12.4974   -5.2355   -5.0607 O.3     1  UNL1       -0.3950
     13 H           0.5784    0.5818    0.6307 H       1  UNL1        0.2094
     14 H           2.6428   -0.2827    1.0310 H       1  UNL1        0.0557
     15 H           2.6434    0.9620   -0.2450 H       1  UNL1        0.0557
     16 H           2.4516   -0.8399   -1.9798 H       1  UNL1        0.0287
     17 H           2.4523   -2.0620   -0.7262 H       1  UNL1        0.0287
     18 H           4.7481   -1.3269   -0.0009 H       1  UNL1        0.0266
     19 H           4.7473   -0.0946   -1.2645 H       1  UNL1        0.0266
     20 H           4.5186   -1.8820   -3.0073 H       1  UNL1        0.0265
     21 H           4.5203   -3.1142   -1.7435 H       1  UNL1        0.0265
     22 H           6.8053   -2.3749   -1.0256 H       1  UNL1        0.0265
     23 H           6.8034   -1.1422   -2.2889 H       1  UNL1        0.0265
     24 H           6.5757   -2.9299   -4.0320 H       1  UNL1        0.0265
     25 H           6.5799   -4.1621   -2.7681 H       1  UNL1        0.0265
     26 H           8.8645   -3.4188   -2.0516 H       1  UNL1        0.0265
     27 H           8.8597   -2.1866   -3.3153 H       1  UNL1        0.0265
     28 H           8.6323   -3.9765   -5.0573 H       1  UNL1        0.0266
     29 H           8.6418   -5.2072   -3.7921 H       1  UNL1        0.0266
     30 H          10.9367   -4.4498   -3.0839 H       1  UNL1        0.0287
     31 H          10.9247   -3.2290   -4.3388 H       1  UNL1        0.0287
     32 H          10.7398   -5.0239   -6.0958 H       1  UNL1        0.0557
     33 H          10.7429   -6.2546   -4.8179 H       1  UNL1        0.0557
     34 H          12.7871   -4.3422   -5.3129 H       1  UNL1        0.2094
@<TRIPOS>BOND
     1     1     2    1
     2     1    13    1
     3     2     3    1
     4     2    14    1
     5     2    15    1
     6     3     4    1
     7     3    16    1
     8     3    17    1
     9     4     5    1
    10     4    18    1
    11     4    19    1
    12     5     6    1
    13     5    20    1
    14     5    21    1
    15     6     7    1
    16     6    22    1
    17     6    23    1
    18     7     8    1
    19     7    24    1
    20     7    25    1
    21     8     9    1
    22     8    26    1
    23     8    27    1
    24     9    10    1
    25     9    28    1
    26     9    29    1
    27    10    11    1
    28    10    30    1
    29    10    31    1
    30    11    12    1
    31    11    32    1
    32    11    33    1
    33    12    34    1
