@<TRIPOS>MOLECULE
*****
 92 91 0 0 0
SMALL
GASTEIGER

@<TRIPOS>ATOM
      1 C           0.7210    0.1874    0.0734 C.3     1  UNL1       -0.0627
      2 C           2.2454    0.0911    0.1581 C.3     1  UNL1       -0.0467
      3 C           2.6564   -1.3710    0.3523 C.3     1  UNL1       -0.0627
      4 C           2.8811    0.7289   -1.0940 C.3     1  UNL1       -0.0507
      5 C           4.4110    0.7061   -1.0652 C.3     1  UNL1       -0.0526
      6 C           5.0249    1.3660   -2.3054 C.3     1  UNL1       -0.0505
      7 C           6.5707    1.3476   -2.2989 C.3     1  UNL1       -0.0439
      8 C           7.1173   -0.0874   -2.2769 C.3     1  UNL1       -0.0624
      9 C           7.1027    2.1445   -3.5152 C.3     1  UNL1       -0.0505
     10 C           8.6321    2.1919   -3.5699 C.3     1  UNL1       -0.0526
     11 C           9.1657    2.9945   -4.7593 C.3     1  UNL1       -0.0505
     12 C          10.7116    3.0408   -4.7991 C.3     1  UNL1       -0.0439
     13 C          11.3218    1.6344   -4.8943 C.3     1  UNL1       -0.0624
     14 C          11.1717    3.9413   -5.9678 C.3     1  UNL1       -0.0505
     15 C          12.6896    4.1250   -6.0089 C.3     1  UNL1       -0.0528
     16 C          13.1418    5.0771   -7.1183 C.3     1  UNL1       -0.0528
     17 C          14.6732    5.1052   -7.1695 C.3     1  UNL1       -0.0505
     18 C          15.2540    5.8343   -8.3956 C.3     1  UNL1       -0.0439
     19 C          14.9305    7.3309   -8.3484 C.3     1  UNL1       -0.0624
     20 C          16.7851    5.6409   -8.4828 C.3     1  UNL1       -0.0505
     21 C          17.1985    4.1940   -8.7873 C.3     1  UNL1       -0.0526
     22 C          18.7224    4.0369   -8.8117 C.3     1  UNL1       -0.0505
     23 C          19.1733    2.5606   -8.8648 C.3     1  UNL1       -0.0439
     24 C          18.7417    1.8912  -10.1744 C.3     1  UNL1       -0.0624
     25 C          20.7020    2.4234   -8.6976 C.3     1  UNL1       -0.0505
     26 C          21.1888    2.7963   -7.2918 C.3     1  UNL1       -0.0526
     27 C          22.6943    2.5597   -7.1381 C.3     1  UNL1       -0.0507
     28 C          23.2482    3.0567   -5.7893 C.3     1  UNL1       -0.0467
     29 C          22.6634    2.2922   -4.6006 C.3     1  UNL1       -0.0627
     30 C          24.7739    2.9421   -5.7787 C.3     1  UNL1       -0.0627
     31 H           0.2553   -0.2208    0.9768 H       1  UNL1        0.0232
     32 H           0.3357   -0.3704   -0.7871 H       1  UNL1        0.0232
     33 H           0.4007    1.2297   -0.0247 H       1  UNL1        0.0232
     34 H           2.5707    0.6559    1.0412 H       1  UNL1        0.0295
     35 H           2.4626   -1.9614   -0.5496 H       1  UNL1        0.0232
     36 H           2.1032   -1.8261    1.1809 H       1  UNL1        0.0232
     37 H           3.7200   -1.4572    0.5956 H       1  UNL1        0.0232
     38 H           2.5406    1.7686   -1.1784 H       1  UNL1        0.0268
     39 H           2.5282    0.2070   -1.9927 H       1  UNL1        0.0268
     40 H           4.7379   -0.3344   -1.0127 H       1  UNL1        0.0265
     41 H           4.7723    1.2130   -0.1625 H       1  UNL1        0.0265
     42 H           4.6780    2.4057   -2.3604 H       1  UNL1        0.0268
     43 H           4.6559    0.8614   -3.2075 H       1  UNL1        0.0268
     44 H           6.9145    1.8529   -1.3866 H       1  UNL1        0.0298
     45 H           6.8360   -0.6296   -3.1857 H       1  UNL1        0.0232
     46 H           6.7536   -0.6517   -1.4148 H       1  UNL1        0.0232
     47 H           8.2074   -0.1030   -2.1903 H       1  UNL1        0.0232
     48 H           6.7139    3.1696   -3.4722 H       1  UNL1        0.0268
     49 H           6.7209    1.6992   -4.4429 H       1  UNL1        0.0268
     50 H           9.0036    1.1693   -3.6531 H       1  UNL1        0.0265
     51 H           9.0216    2.6140   -2.6358 H       1  UNL1        0.0265
     52 H           8.7748    4.0181   -4.7029 H       1  UNL1        0.0268
     53 H           8.7861    2.5601   -5.6929 H       1  UNL1        0.0268
     54 H          11.0612    3.4954   -3.8625 H       1  UNL1        0.0298
     55 H          10.9892    1.1210   -5.8025 H       1  UNL1        0.0232
     56 H          11.0535    1.0167   -4.0330 H       1  UNL1        0.0232
     57 H          12.4146    1.6635   -4.8980 H       1  UNL1        0.0232
     58 H          10.6975    4.9259   -5.8720 H       1  UNL1        0.0268
     59 H          10.8298    3.5152   -6.9197 H       1  UNL1        0.0268
     60 H          13.1709    3.1563   -6.1791 H       1  UNL1        0.0265
     61 H          13.0435    4.4979   -5.0400 H       1  UNL1        0.0265
     62 H          12.7427    6.0794   -6.9306 H       1  UNL1        0.0265
     63 H          12.7451    4.7346   -8.0814 H       1  UNL1        0.0265
     64 H          15.0174    4.0668   -7.1682 H       1  UNL1        0.0268
     65 H          15.0603    5.5589   -6.2479 H       1  UNL1        0.0268
     66 H          14.8027    5.4183   -9.3055 H       1  UNL1        0.0298
     67 H          15.3147    7.7907   -7.4314 H       1  UNL1        0.0232
     68 H          13.8513    7.5061   -8.3911 H       1  UNL1        0.0232
     69 H          15.3777    7.8533   -9.2008 H       1  UNL1        0.0232
     70 H          17.2474    5.9675   -7.5424 H       1  UNL1        0.0268
     71 H          17.1885    6.2870   -9.2730 H       1  UNL1        0.0268
     72 H          16.7709    3.8968   -9.7511 H       1  UNL1        0.0265
     73 H          16.8002    3.5134   -8.0298 H       1  UNL1        0.0265
     74 H          19.1211    4.5091   -7.9080 H       1  UNL1        0.0268
     75 H          19.1366    4.5882   -9.6649 H       1  UNL1        0.0268
     76 H          18.6926    2.0162   -8.0412 H       1  UNL1        0.0298
     77 H          19.1409    2.4247  -11.0433 H       1  UNL1        0.0232
     78 H          17.6517    1.8567  -10.2646 H       1  UNL1        0.0232
     79 H          19.0984    0.8564  -10.2188 H       1  UNL1        0.0232
     80 H          21.2143    3.0424   -9.4446 H       1  UNL1        0.0268
     81 H          20.9921    1.3835   -8.8964 H       1  UNL1        0.0268
     82 H          20.6391    2.1985   -6.5563 H       1  UNL1        0.0265
     83 H          20.9773    3.8495   -7.0828 H       1  UNL1        0.0265
     84 H          23.2162    3.0829   -7.9497 H       1  UNL1        0.0268
     85 H          22.9120    1.4911   -7.2604 H       1  UNL1        0.0268
     86 H          22.9921    4.1176   -5.6734 H       1  UNL1        0.0295
     87 H          22.8309    1.2145   -4.7002 H       1  UNL1        0.0232
     88 H          21.5868    2.4633   -4.5067 H       1  UNL1        0.0232
     89 H          23.1249    2.6206   -3.6629 H       1  UNL1        0.0232
     90 H          25.0954    1.9007   -5.8869 H       1  UNL1        0.0232
     91 H          25.1864    3.3294   -4.8410 H       1  UNL1        0.0232
     92 H          25.2131    3.5206   -6.5984 H       1  UNL1        0.0232
@<TRIPOS>BOND
     1     1     2    1
     2     1    31    1
     3     1    32    1
     4     1    33    1
     5     2     3    1
     6     2     4    1
     7     2    34    1
     8     3    35    1
     9     3    36    1
    10     3    37    1
    11     4     5    1
    12     4    38    1
    13     4    39    1
    14     5     6    1
    15     5    40    1
    16     5    41    1
    17     6     7    1
    18     6    42    1
    19     6    43    1
    20     7     8    1
    21     7     9    1
    22     7    44    1
    23     8    45    1
    24     8    46    1
    25     8    47    1
    26     9    10    1
    27     9    48    1
    28     9    49    1
    29    10    11    1
    30    10    50    1
    31    10    51    1
    32    11    12    1
    33    11    52    1
    34    11    53    1
    35    12    13    1
    36    12    14    1
    37    12    54    1
    38    13    55    1
    39    13    56    1
    40    13    57    1
    41    14    15    1
    42    14    58    1
    43    14    59    1
    44    15    16    1
    45    15    60    1
    46    15    61    1
    47    16    17    1
    48    16    62    1
    49    16    63    1
    50    17    18    1
    51    17    64    1
    52    17    65    1
    53    18    19    1
    54    18    20    1
    55    18    66    1
    56    19    67    1
    57    19    68    1
    58    19    69    1
    59    20    21    1
    60    20    70    1
    61    20    71    1
    62    21    22    1
    63    21    72    1
    64    21    73    1
    65    22    23    1
    66    22    74    1
    67    22    75    1
    68    23    24    1
    69    23    25    1
    70    23    76    1
    71    24    77    1
    72    24    78    1
    73    24    79    1
    74    25    26    1
    75    25    80    1
    76    25    81    1
    77    26    27    1
    78    26    82    1
    79    26    83    1
    80    27    28    1
    81    27    84    1
    82    27    85    1
    83    28    29    1
    84    28    30    1
    85    28    86    1
    86    29    87    1
    87    29    88    1
    88    29    89    1
    89    30    90    1
    90    30    91    1
    91    30    92    1
