@<TRIPOS>MOLECULE
*****
 56 55 0 0 0
SMALL
GASTEIGER

@<TRIPOS>ATOM
      1 C           3.1182   -2.4171   -0.2647 C.3     1  UNL1       -0.0653
      2 C           3.8627   -1.8866   -1.4783 C.3     1  UNL1       -0.0559
      3 C           4.4914   -0.5151   -1.2155 C.3     1  UNL1       -0.0532
      4 C           5.2247   -0.0173   -2.4611 C.3     1  UNL1       -0.0500
      5 C           5.8569    1.3639   -2.2739 C.3     1  UNL1       -0.0185
      6 C           6.5383    1.8007   -3.5684 C.3     1  UNL1        0.0925
      7 O           7.0643    3.1327   -3.4812 O.3     1  UNL1       -0.4646
      8 C           8.3798    3.2305   -3.1334 C.2     1  UNL1        0.3071
      9 O           9.0520    2.3280   -2.6604 O.2     1  UNL1       -0.2509
     10 C           8.8860    4.6177   -3.4737 C.3     1  UNL1        0.0450
     11 C          10.4151    4.6695   -3.5600 C.3     1  UNL1       -0.0425
     12 C          10.8976    5.7798   -4.5002 C.3     1  UNL1       -0.0425
     13 C          12.4268    5.8713   -4.5400 C.3     1  UNL1        0.0450
     14 C          12.9318    6.4361   -5.8517 C.2     1  UNL1        0.3071
     15 O          12.2577    7.0536   -6.6633 O.2     1  UNL1       -0.2509
     16 O          14.2462    6.1090   -6.0087 O.3     1  UNL1       -0.4646
     17 C          14.7698    6.2430   -7.3377 C.3     1  UNL1        0.0925
     18 C          15.4510    7.5917   -7.5560 C.3     1  UNL1       -0.0185
     19 C          16.0809    7.6349   -8.9502 C.3     1  UNL1       -0.0500
     20 C          16.8140    8.9454   -9.2370 C.3     1  UNL1       -0.0532
     21 C          17.4409    8.9119  -10.6339 C.3     1  UNL1       -0.0559
     22 C          18.1850   10.1964  -10.9582 C.3     1  UNL1       -0.0653
     23 H           2.6812   -3.3956   -0.4892 H       1  UNL1        0.0230
     24 H           2.3066   -1.7423    0.0246 H       1  UNL1        0.0230
     25 H           3.7921   -2.5349    0.5894 H       1  UNL1        0.0230
     26 H           3.1658   -1.8193   -2.3223 H       1  UNL1        0.0263
     27 H           4.6421   -2.6039   -1.7614 H       1  UNL1        0.0263
     28 H           5.1915   -0.5829   -0.3745 H       1  UNL1        0.0265
     29 H           3.7103    0.2010   -0.9335 H       1  UNL1        0.0265
     30 H           4.5193    0.0205   -3.3008 H       1  UNL1        0.0266
     31 H           6.0056   -0.7383   -2.7333 H       1  UNL1        0.0266
     32 H           6.5852    1.3455   -1.4547 H       1  UNL1        0.0298
     33 H           5.0954    2.1006   -1.9910 H       1  UNL1        0.0298
     34 H           5.8042    1.8168   -4.3818 H       1  UNL1        0.0697
     35 H           7.3178    1.0890   -3.8670 H       1  UNL1        0.0697
     36 H           8.5204    5.3248   -2.7224 H       1  UNL1        0.0377
     37 H           8.4595    4.8899   -4.4468 H       1  UNL1        0.0377
     38 H          10.8072    3.7121   -3.9256 H       1  UNL1        0.0271
     39 H          10.8302    4.8166   -2.5556 H       1  UNL1        0.0271
     40 H          10.4846    6.7467   -4.1882 H       1  UNL1        0.0271
     41 H          10.5034    5.5783   -5.5042 H       1  UNL1        0.0271
     42 H          12.8521    4.8659   -4.4341 H       1  UNL1        0.0377
     43 H          12.7950    6.4941   -3.7185 H       1  UNL1        0.0377
     44 H          13.9889    6.0661   -8.0875 H       1  UNL1        0.0697
     45 H          15.5036    5.4379   -7.4576 H       1  UNL1        0.0697
     46 H          16.2138    7.7491   -6.7841 H       1  UNL1        0.0298
     47 H          14.7231    8.4028   -7.4378 H       1  UNL1        0.0298
     48 H          15.2987    7.4855   -9.7050 H       1  UNL1        0.0266
     49 H          16.7860    6.8003   -9.0526 H       1  UNL1        0.0266
     50 H          17.5960    9.1056   -8.4853 H       1  UNL1        0.0265
     51 H          16.1139    9.7861   -9.1646 H       1  UNL1        0.0265
     52 H          16.6605    8.7508  -11.3871 H       1  UNL1        0.0263
     53 H          18.1377    8.0684  -10.7073 H       1  UNL1        0.0263
     54 H          17.5111   11.0582  -10.9332 H       1  UNL1        0.0230
     55 H          18.6210   10.1359  -11.9609 H       1  UNL1        0.0230
     56 H          18.9974   10.3707  -10.2459 H       1  UNL1        0.0230
@<TRIPOS>BOND
     1     1     2    1
     2     1    23    1
     3     1    24    1
     4     1    25    1
     5     2     3    1
     6     2    26    1
     7     2    27    1
     8     3     4    1
     9     3    28    1
    10     3    29    1
    11     4     5    1
    12     4    30    1
    13     4    31    1
    14     5     6    1
    15     5    32    1
    16     5    33    1
    17     6     7    1
    18     6    34    1
    19     6    35    1
    20     7     8    1
    21     8     9    2
    22     8    10    1
    23    10    11    1
    24    10    36    1
    25    10    37    1
    26    11    12    1
    27    11    38    1
    28    11    39    1
    29    12    13    1
    30    12    40    1
    31    12    41    1
    32    13    14    1
    33    13    42    1
    34    13    43    1
    35    14    15    2
    36    14    16    1
    37    16    17    1
    38    17    18    1
    39    17    44    1
    40    17    45    1
    41    18    19    1
    42    18    46    1
    43    18    47    1
    44    19    20    1
    45    19    48    1
    46    19    49    1
    47    20    21    1
    48    20    50    1
    49    20    51    1
    50    21    22    1
    51    21    52    1
    52    21    53    1
    53    22    54    1
    54    22    55    1
    55    22    56    1
