@<TRIPOS>MOLECULE
*****
 25 24 0 0 0
SMALL
GASTEIGER

@<TRIPOS>ATOM
      1 C           0.9460   -2.0340   -1.2380 C.3     1  UNL1       -0.0628
      2 C           2.4650   -2.0670   -1.1290 C.3     1  UNL1       -0.0270
      3 C           3.1000   -0.6660   -1.2050 C.3     1  UNL1        0.0833
      4 O           2.6290    0.1090   -0.0920 O.3     1  UNL1       -0.3890
      5 C           4.6640   -0.6770   -1.2030 C.3     1  UNL1        0.0888
      6 C           5.2160    0.7610   -1.2180 C.3     1  UNL1       -0.0336
      7 O           5.1140   -1.3020    0.0110 O.3     1  UNL1       -0.3863
      8 C           5.2080   -1.4940   -2.3980 C.3     1  UNL1       -0.0247
      9 C           6.7260   -1.5540   -2.5100 C.3     1  UNL1       -0.0626
     10 H           0.5510   -3.0560   -1.2220 H       1  UNL1        0.0231
     11 H           0.6320   -1.5680   -2.1780 H       1  UNL1        0.0231
     12 H           0.4930   -1.4840   -0.4070 H       1  UNL1        0.0231
     13 H           2.8310   -2.7030   -1.9390 H       1  UNL1        0.0288
     14 H           2.7290   -2.5500   -0.1820 H       1  UNL1        0.0288
     15 H           2.7510   -0.1590   -2.1130 H       1  UNL1        0.0622
     16 H           2.7450   -0.4380    0.7050 H       1  UNL1        0.2099
     17 H           4.8370    1.3450   -0.3710 H       1  UNL1        0.0258
     18 H           4.9450    1.2820   -2.1430 H       1  UNL1        0.0258
     19 H           6.3040    0.7730   -1.1110 H       1  UNL1        0.0258
     20 H           4.9890   -0.6580    0.7290 H       1  UNL1        0.2103
     21 H           4.7970   -1.0970   -3.3340 H       1  UNL1        0.0291
     22 H           4.8780   -2.5360   -2.3120 H       1  UNL1        0.0291
     23 H           7.1550   -0.5720   -2.7270 H       1  UNL1        0.0231
     24 H           7.0070   -2.2210   -3.3300 H       1  UNL1        0.0231
     25 H           7.1770   -1.9410   -1.5920 H       1  UNL1        0.0231
@<TRIPOS>BOND
     1     1     2    1
     2     1    10    1
     3     1    11    1
     4     1    12    1
     5     2     3    1
     6     2    13    1
     7     2    14    1
     8     3     4    1
     9     3     5    1
    10     3    15    1
    11     4    16    1
    12     5     6    1
    13     5     7    1
    14     5     8    1
    15     6    17    1
    16     6    18    1
    17     6    19    1
    18     7    20    1
    19     8     9    1
    20     8    21    1
    21     8    22    1
    22     9    23    1
    23     9    24    1
    24     9    25    1
