@<TRIPOS>MOLECULE
***** 
25 24 0 0 0
SMALL
USER_CHARGES
#CGenFF output mol2 file
@<TRIPOS>ATOM
1	C1     0.9460    -2.0340    -1.2380	C.3	1	UNL1    -0.2760
2	C2     2.4650    -2.0670    -1.1290	C.3	1	UNL1    -0.1810
3	C3     3.1000    -0.6660    -1.2050	C.3	1	UNL1     0.1540
4	O1     2.6290     0.1090    -0.0920	O.3	1	UNL1    -0.6390
5	C4     4.6640    -0.6770    -1.2030	C.3	1	UNL1     0.1870
6	C5     5.2160     0.7610    -1.2180	C.3	1	UNL1    -0.2670
7	O2     5.1140    -1.3020     0.0110	O.3	1	UNL1    -0.5250
8	C6     5.2080    -1.4940    -2.3980	C.3	1	UNL1    -0.1690
9	C7     6.7260    -1.5540    -2.5100	C.3	1	UNL1    -0.2790
10	H1     0.5510    -3.0560    -1.2220	H	1	UNL1     0.0900
11	H2     0.6320    -1.5680    -2.1780	H	1	UNL1     0.0900
12	H3     0.4930    -1.4840    -0.4070	H	1	UNL1     0.0900
13	H4     2.8310    -2.7030    -1.9390	H	1	UNL1     0.0900
14	H5     2.7290    -2.5500    -0.1820	H	1	UNL1     0.0900
15	H6     2.7510    -0.1590    -2.1130	H	1	UNL1     0.0900
16	H7     2.7450    -0.4380     0.7050	H	1	UNL1     0.4000
17	H8     4.8370     1.3450    -0.3710	H	1	UNL1     0.0900
18	H9     4.9450     1.2820    -2.1430	H	1	UNL1     0.0900
19	H10     6.3040     0.7730    -1.1110	H	1	UNL1     0.0900
20	H11     4.9890    -0.6580     0.7290	H	1	UNL1     0.3350
21	H12     4.7970    -1.0970    -3.3340	H	1	UNL1     0.0900
22	H13     4.8780    -2.5360    -2.3120	H	1	UNL1     0.0900
23	H14     7.1550    -0.5720    -2.7270	H	1	UNL1     0.0900
24	H15     7.0070    -2.2210    -3.3300	H	1	UNL1     0.0900
25	H16     7.1770    -1.9410    -1.5920	H	1	UNL1     0.0900
@<TRIPOS>BOND
1	1	2	1
2	1	10	1
3	1	11	1
4	1	12	1
5	2	3	1
6	2	13	1
7	2	14	1
8	3	4	1
9	3	5	1
10	3	15	1
11	4	16	1
12	5	6	1
13	5	7	1
14	5	8	1
15	6	17	1
16	6	18	1
17	6	19	1
18	7	20	1
19	8	9	1
20	8	21	1
21	8	22	1
22	9	23	1
23	9	24	1
24	9	25	1
