@<TRIPOS>MOLECULE
*****
 29 28 0 0 0
SMALL
GASTEIGER

@<TRIPOS>ATOM
      1 C           0.9076    0.0366   -0.0577 C.3     1  UNL1       -0.0652
      2 C           2.4275    0.0590   -0.0775 C.3     1  UNL1       -0.0538
      3 C           3.0160   -1.0408    0.8019 C.3     1  UNL1       -0.0297
      4 C           4.5400   -1.0195    0.7817 C.3     1  UNL1        0.0478
      5 O           5.0166   -2.0695    1.6231 O.3     1  UNL1       -0.3775
      6 C           6.4427   -2.1116    1.6480 C.3     1  UNL1        0.0710
      7 C           6.9014   -3.2422    2.5621 C.3     1  UNL1        0.0711
      8 O           8.3294   -3.2880    2.5776 O.3     1  UNL1       -0.3752
      9 C           8.8080   -4.3342    3.4336 C.3     1  UNL1        0.0708
     10 C          10.3320   -4.3265    3.3791 C.3     1  UNL1        0.0676
     11 O          10.8242   -3.0678    3.8366 O.3     1  UNL1       -0.3927
     12 H           0.5088    0.8330   -0.6939 H       1  UNL1        0.0230
     13 H           0.5261    0.1892    0.9569 H       1  UNL1        0.0230
     14 H           0.5244   -0.9190   -0.4294 H       1  UNL1        0.0230
     15 H           2.7770    1.0389    0.2682 H       1  UNL1        0.0263
     16 H           2.7753   -0.0636   -1.1098 H       1  UNL1        0.0263
     17 H           2.6621   -2.0245    0.4685 H       1  UNL1        0.0287
     18 H           2.6647   -0.9302    1.8354 H       1  UNL1        0.0287
     19 H           4.9102   -0.0572    1.1534 H       1  UNL1        0.0560
     20 H           4.9072   -1.1742   -0.2394 H       1  UNL1        0.0560
     21 H           6.8413   -1.1568    2.0114 H       1  UNL1        0.0583
     22 H           6.8317   -2.2724    0.6354 H       1  UNL1        0.0583
     23 H           6.4995   -4.1971    2.2029 H       1  UNL1        0.0583
     24 H           6.5192   -3.0781    3.5767 H       1  UNL1        0.0583
     25 H           8.4226   -5.3009    3.0930 H       1  UNL1        0.0583
     26 H           8.4682   -4.1355    4.4561 H       1  UNL1        0.0583
     27 H          10.6863   -4.4660    2.3530 H       1  UNL1        0.0580
     28 H          10.7511   -5.1131    4.0124 H       1  UNL1        0.0580
     29 H          10.2922   -2.3993    3.3627 H       1  UNL1        0.2095
@<TRIPOS>BOND
     1     1     2    1
     2     1    12    1
     3     1    13    1
     4     1    14    1
     5     2     3    1
     6     2    15    1
     7     2    16    1
     8     3     4    1
     9     3    17    1
    10     3    18    1
    11     4     5    1
    12     4    19    1
    13     4    20    1
    14     5     6    1
    15     6     7    1
    16     6    21    1
    17     6    22    1
    18     7     8    1
    19     7    23    1
    20     7    24    1
    21     8     9    1
    22     9    10    1
    23     9    25    1
    24     9    26    1
    25    10    11    1
    26    10    27    1
    27    10    28    1
    28    11    29    1
