@<TRIPOS>MOLECULE
*****
 31 30 0 0 0
SMALL
GASTEIGER

@<TRIPOS>ATOM
      1 C           0.9481   -0.0714    1.3073 C.3     1  UNL1       -0.0440
      2 C           2.4524   -0.1041    1.3238 C.2     1  UNL1       -0.0796
      3 C           3.1037   -1.2178    2.0945 C.3     1  UNL1       -0.0440
      4 C           3.1503    0.8409    0.6637 C.2     1  UNL1       -0.0853
      5 C           4.6478    0.9351    0.5464 C.3     1  UNL1       -0.0343
      6 C           5.1805    2.2115    1.2079 C.3     1  UNL1       -0.0469
      7 C           6.7222    2.2929    1.2360 C.3     1  UNL1       -0.0415
      8 C           7.3212    2.2361   -0.1744 C.3     1  UNL1       -0.0623
      9 C           7.2164    3.5748    1.9359 C.3     1  UNL1       -0.0271
     10 C           6.8527    3.6572    3.4148 C.3     1  UNL1        0.0444
     11 O           7.4516    4.8128    3.9903 O.3     1  UNL1       -0.3950
     12 H           0.5143   -0.8201    1.9773 H       1  UNL1        0.0274
     13 H           0.5743   -0.2751    0.2983 H       1  UNL1        0.0274
     14 H           0.5781    0.9069    1.6320 H       1  UNL1        0.0274
     15 H           2.3686   -1.8338    2.6219 H       1  UNL1        0.0274
     16 H           3.7860   -0.8162    2.8513 H       1  UNL1        0.0274
     17 H           3.6605   -1.8781    1.4220 H       1  UNL1        0.0274
     18 H           2.5995    1.6146    0.1283 H       1  UNL1        0.0571
     19 H           4.8922    0.9315   -0.5217 H       1  UNL1        0.0307
     20 H           5.1412    0.0618    0.9855 H       1  UNL1        0.0307
     21 H           4.7976    2.2497    2.2347 H       1  UNL1        0.0271
     22 H           4.7754    3.0903    0.6890 H       1  UNL1        0.0271
     23 H           7.1051    1.4293    1.7955 H       1  UNL1        0.0299
     24 H           6.9167    3.0319   -0.8088 H       1  UNL1        0.0232
     25 H           7.1189    1.2754   -0.6573 H       1  UNL1        0.0232
     26 H           8.4102    2.3511   -0.1405 H       1  UNL1        0.0232
     27 H           6.8309    4.4637    1.4196 H       1  UNL1        0.0290
     28 H           8.3092    3.6396    1.8471 H       1  UNL1        0.0290
     29 H           7.2045    2.7770    3.9621 H       1  UNL1        0.0557
     30 H           5.7729    3.7461    3.5582 H       1  UNL1        0.0557
     31 H           8.4151    4.7215    3.8962 H       1  UNL1        0.2094
@<TRIPOS>BOND
     1     1     2    1
     2     1    12    1
     3     1    13    1
     4     1    14    1
     5     2     3    1
     6     2     4    2
     7     3    15    1
     8     3    16    1
     9     3    17    1
    10     4     5    1
    11     4    18    1
    12     5     6    1
    13     5    19    1
    14     5    20    1
    15     6     7    1
    16     6    21    1
    17     6    22    1
    18     7     8    1
    19     7     9    1
    20     7    23    1
    21     8    24    1
    22     8    25    1
    23     8    26    1
    24     9    10    1
    25     9    27    1
    26     9    28    1
    27    10    11    1
    28    10    29    1
    29    10    30    1
    30    11    31    1
