@<TRIPOS>MOLECULE
*****
 21 20 0 0 0
SMALL
GASTEIGER

@<TRIPOS>ATOM
      1 C           0.8336    0.0407    0.0127 C.3     1  UNL1       -0.0629
      2 C           2.3575    0.0633    0.0383 C.3     1  UNL1       -0.0295
      3 C           2.9412   -0.9384    1.0453 C.3     1  UNL1        0.0573
      4 O           2.4710   -2.2471    0.7127 O.3     1  UNL1       -0.3915
      5 C           4.4875   -0.9511    1.0790 C.3     1  UNL1       -0.0206
      6 C           5.0784    0.4095    1.4541 C.3     1  UNL1       -0.0603
      7 C           5.0032   -2.0150    2.0572 C.3     1  UNL1       -0.0603
      8 H           0.4582    0.7902   -0.6913 H       1  UNL1        0.0231
      9 H           0.4232    0.2688    1.0016 H       1  UNL1        0.0231
     10 H           0.4519   -0.9351   -0.3030 H       1  UNL1        0.0231
     11 H           2.6789    1.0815    0.2790 H       1  UNL1        0.0287
     12 H           2.7204   -0.1702   -0.9699 H       1  UNL1        0.0287
     13 H           2.5569   -0.7076    2.0461 H       1  UNL1        0.0596
     14 H           2.8070   -2.4664   -0.1732 H       1  UNL1        0.2098
     15 H           4.8590   -1.2270    0.0833 H       1  UNL1        0.0320
     16 H           4.6738    0.7678    2.4066 H       1  UNL1        0.0233
     17 H           4.8699    1.1614    0.6875 H       1  UNL1        0.0233
     18 H           6.1677    0.3475    1.5523 H       1  UNL1        0.0233
     19 H           4.6448   -1.8234    3.0743 H       1  UNL1        0.0233
     20 H           6.0984   -2.0235    2.0803 H       1  UNL1        0.0233
     21 H           4.6764   -3.0178    1.7641 H       1  UNL1        0.0233
@<TRIPOS>BOND
     1     1     2    1
     2     1     8    1
     3     1     9    1
     4     1    10    1
     5     2     3    1
     6     2    11    1
     7     2    12    1
     8     3     4    1
     9     3     5    1
    10     3    13    1
    11     4    14    1
    12     5     6    1
    13     5     7    1
    14     5    15    1
    15     6    16    1
    16     6    17    1
    17     6    18    1
    18     7    19    1
    19     7    20    1
    20     7    21    1
