@<TRIPOS>MOLECULE
*****
 27 27 0 0 0
SMALL
GASTEIGER

@<TRIPOS>ATOM
      1 C           0.9990    2.5930    0.4270 C.3     1  UNL1       -0.0650
      2 C           2.5190    2.5510    0.4510 C.3     1  UNL1       -0.0519
      3 C           3.0620    1.3580   -0.3420 C.3     1  UNL1       -0.0279
      4 C           4.5690    1.2680   -0.3180 C.ar    1  UNL1       -0.0471
      5 C           5.2600    1.1450    0.8950 C.ar    1  UNL1       -0.0586
      6 C           6.6490    1.0390    0.9120 C.ar    1  UNL1       -0.0612
      7 C           7.3680    1.0400   -0.2830 C.ar    1  UNL1       -0.0586
      8 C           6.7010    1.1550   -1.5080 C.ar    1  UNL1       -0.0474
      9 C           7.4700    1.1360   -2.8050 C.3     1  UNL1       -0.0305
     10 C           7.5980   -0.2690   -3.3750 C.3     1  UNL1       -0.0613
     11 C           5.3010    1.2670   -1.5140 C.ar    1  UNL1       -0.0554
     12 H           0.6360    3.4540    0.9980 H       1  UNL1        0.0230
     13 H           0.5760    1.6870    0.8750 H       1  UNL1        0.0230
     14 H           0.6230    2.6810   -0.5970 H       1  UNL1        0.0230
     15 H           2.8470    2.5050    1.4960 H       1  UNL1        0.0266
     16 H           2.9150    3.4870    0.0340 H       1  UNL1        0.0266
     17 H           2.7090    1.4310   -1.3800 H       1  UNL1        0.0313
     18 H           2.6550    0.4200    0.0570 H       1  UNL1        0.0313
     19 H           4.7200    1.1240    1.8370 H       1  UNL1        0.0620
     20 H           7.1740    0.9500    1.8610 H       1  UNL1        0.0618
     21 H           8.4510    0.9460   -0.2520 H       1  UNL1        0.0620
     22 H           8.4680    1.5640   -2.6510 H       1  UNL1        0.0311
     23 H           6.9710    1.7870   -3.5340 H       1  UNL1        0.0311
     24 H           8.1830   -0.9140   -2.7110 H       1  UNL1        0.0233
     25 H           8.1030   -0.2360   -4.3460 H       1  UNL1        0.0233
     26 H           6.6170   -0.7340   -3.5190 H       1  UNL1        0.0233
     27 H           4.7790    1.3490   -2.4660 H       1  UNL1        0.0623
@<TRIPOS>BOND
     1     1     2    1
     2     1    12    1
     3     1    13    1
     4     1    14    1
     5     2     3    1
     6     2    15    1
     7     2    16    1
     8     3     4    1
     9     3    17    1
    10     3    18    1
    11     4     5   ar
    12     4    11   ar
    13     5     6   ar
    14     5    19    1
    15     6     7   ar
    16     6    20    1
    17     7     8   ar
    18     7    21    1
    19     8     9    1
    20     8    11   ar
    21     9    10    1
    22     9    22    1
    23     9    23    1
    24    10    24    1
    25    10    25    1
    26    10    26    1
    27    11    27    1
