@<TRIPOS>MOLECULE
***** 
27 27 0 0 0
SMALL
USER_CHARGES
#CGenFF output mol2 file
@<TRIPOS>ATOM
1	C1     0.9990     2.5930     0.4270	C.3	1	UNL1    -0.2750
2	C2     2.5190     2.5510     0.4510	C.3	1	UNL1    -0.1760
3	C3     3.0620     1.3580    -0.3420	C.3	1	UNL1    -0.1830
4	C4     4.5690     1.2680    -0.3180	C.ar	1	UNL1     0.0020
5	C5     5.2600     1.1450     0.8950	C.ar	1	UNL1    -0.1180
6	C6     6.6490     1.0390     0.9120	C.ar	1	UNL1    -0.0990
7	C7     7.3680     1.0400    -0.2830	C.ar	1	UNL1    -0.1290
8	C8     6.7010     1.1550    -1.5080	C.ar	1	UNL1     0.0090
9	C9     7.4700     1.1360    -2.8050	C.3	1	UNL1    -0.1710
10	C10     7.5980    -0.2690    -3.3750	C.3	1	UNL1    -0.2680
11	C11     5.3010     1.2670    -1.5140	C.ar	1	UNL1    -0.1320
12	H1     0.6360     3.4540     0.9980	H	1	UNL1     0.0900
13	H2     0.5760     1.6870     0.8750	H	1	UNL1     0.0900
14	H3     0.6230     2.6810    -0.5970	H	1	UNL1     0.0900
15	H4     2.8470     2.5050     1.4960	H	1	UNL1     0.0900
16	H5     2.9150     3.4870     0.0340	H	1	UNL1     0.0900
17	H6     2.7090     1.4310    -1.3800	H	1	UNL1     0.0900
18	H7     2.6550     0.4200     0.0570	H	1	UNL1     0.0900
19	H8     4.7200     1.1240     1.8370	H	1	UNL1     0.1150
20	H9     7.1740     0.9500     1.8610	H	1	UNL1     0.1150
21	H10     8.4510     0.9460    -0.2520	H	1	UNL1     0.1150
22	H11     8.4680     1.5640    -2.6510	H	1	UNL1     0.0900
23	H12     6.9710     1.7870    -3.5340	H	1	UNL1     0.0900
24	H13     8.1830    -0.9140    -2.7110	H	1	UNL1     0.0900
25	H14     8.1030    -0.2360    -4.3460	H	1	UNL1     0.0900
26	H15     6.6170    -0.7340    -3.5190	H	1	UNL1     0.0900
27	H16     4.7790     1.3490    -2.4660	H	1	UNL1     0.1150
@<TRIPOS>BOND
1	1	2	1
2	1	12	1
3	1	13	1
4	1	14	1
5	2	3	1
6	2	15	1
7	2	16	1
8	3	4	1
9	3	17	1
10	3	18	1
11	4	5	2
12	4	11	1
13	5	6	1
14	5	19	1
15	6	7	2
16	6	20	1
17	7	8	1
18	7	21	1
19	8	9	1
20	8	11	2
21	9	10	1
22	9	22	1
23	9	23	1
24	10	24	1
25	10	25	1
26	10	26	1
27	11	27	1
