@<TRIPOS>MOLECULE
*****
 28 27 0 0 0
SMALL
GASTEIGER

@<TRIPOS>ATOM
      1 C           0.9599   -0.0699   -0.0669 C.3     1  UNL1       -0.0653
      2 C           2.4800   -0.0717   -0.0656 C.3     1  UNL1       -0.0559
      3 C           3.0392   -1.4051    0.4305 C.3     1  UNL1       -0.0532
      4 C           4.5688   -1.3972    0.4341 C.3     1  UNL1       -0.0510
      5 C           5.1326   -2.7228    0.9542 C.3     1  UNL1       -0.0295
      6 C           6.6583   -2.7452    0.9381 C.3     1  UNL1        0.0478
      7 O           7.1527   -1.7234    1.8025 O.3     1  UNL1       -0.3775
      8 C           8.5852   -1.6951    1.8231 C.3     1  UNL1        0.0707
      9 C           9.0161   -0.5508    2.7340 C.3     1  UNL1        0.0676
     10 O           8.5100   -0.7678    4.0504 O.3     1  UNL1       -0.3927
     11 H           0.5826    0.8940   -0.4225 H       1  UNL1        0.0230
     12 H           0.5665   -0.2378    0.9407 H       1  UNL1        0.0230
     13 H           0.5672   -0.8521   -0.7244 H       1  UNL1        0.0230
     14 H           2.8392    0.7433    0.5737 H       1  UNL1        0.0263
     15 H           2.8413    0.1292   -1.0809 H       1  UNL1        0.0263
     16 H           2.6770   -2.2179   -0.2108 H       1  UNL1        0.0265
     17 H           2.6700   -1.6037    1.4440 H       1  UNL1        0.0265
     18 H           4.9254   -0.5698    1.0591 H       1  UNL1        0.0266
     19 H           4.9374   -1.2159   -0.5829 H       1  UNL1        0.0266
     20 H           4.7550   -3.5517    0.3444 H       1  UNL1        0.0287
     21 H           4.7808   -2.8781    1.9814 H       1  UNL1        0.0287
     22 H           7.0291   -2.5806   -0.0802 H       1  UNL1        0.0560
     23 H           7.0127   -3.7208    1.2898 H       1  UNL1        0.0560
     24 H           8.9717   -1.5382    0.8107 H       1  UNL1        0.0583
     25 H           8.9499   -2.6494    2.2188 H       1  UNL1        0.0583
     26 H           8.6130    0.4028    2.3789 H       1  UNL1        0.0580
     27 H          10.1058   -0.4807    2.7880 H       1  UNL1        0.0580
     28 H           7.5677   -0.9954    3.9236 H       1  UNL1        0.2095
@<TRIPOS>BOND
     1     1     2    1
     2     1    11    1
     3     1    12    1
     4     1    13    1
     5     2     3    1
     6     2    14    1
     7     2    15    1
     8     3     4    1
     9     3    16    1
    10     3    17    1
    11     4     5    1
    12     4    18    1
    13     4    19    1
    14     5     6    1
    15     5    20    1
    16     5    21    1
    17     6     7    1
    18     6    22    1
    19     6    23    1
    20     7     8    1
    21     8     9    1
    22     8    24    1
    23     8    25    1
    24     9    10    1
    25     9    26    1
    26     9    27    1
    27    10    28    1
