@<TRIPOS>MOLECULE
*****
 18 19 0 0 0
SMALL
GASTEIGER

@<TRIPOS>ATOM
      1 C           2.4310   -0.6960   -0.0090 C.ar    1  UNL1       -0.0612
      2 C           2.4320    0.6950   -0.0040 C.ar    1  UNL1       -0.0612
      3 C           1.2230    1.3930    0.0050 C.ar    1  UNL1       -0.0540
      4 C          -0.0020    0.7070    0.0040 C.ar    1  UNL1       -0.0179
      5 C          -1.2270    1.3940   -0.0020 C.ar    1  UNL1       -0.0540
      6 C          -2.4360    0.6970   -0.0100 C.ar    1  UNL1       -0.0612
      7 C          -2.4370   -0.6950   -0.0050 C.ar    1  UNL1       -0.0612
      8 C          -1.2280   -1.3930    0.0040 C.ar    1  UNL1       -0.0540
      9 C          -0.0030   -0.7070    0.0040 C.ar    1  UNL1       -0.0179
     10 C           1.2220   -1.3940   -0.0010 C.ar    1  UNL1       -0.0540
     11 H           3.3720   -1.2410   -0.0200 H       1  UNL1        0.0618
     12 H           3.3730    1.2390   -0.0090 H       1  UNL1        0.0618
     13 H           1.2440    2.4810    0.0100 H       1  UNL1        0.0624
     14 H          -1.2460    2.4810   -0.0050 H       1  UNL1        0.0624
     15 H          -3.3760    1.2420   -0.0220 H       1  UNL1        0.0618
     16 H          -3.3780   -1.2390   -0.0100 H       1  UNL1        0.0618
     17 H          -1.2490   -2.4810    0.0080 H       1  UNL1        0.0624
     18 H           1.2420   -2.4810   -0.0030 H       1  UNL1        0.0624
@<TRIPOS>BOND
     1     1     2   ar
     2     1    10   ar
     3     1    11    1
     4     2     3   ar
     5     2    12    1
     6     3     4   ar
     7     3    13    1
     8     4     5   ar
     9     4     9   ar
    10     5     6   ar
    11     5    14    1
    12     6     7   ar
    13     6    15    1
    14     7     8   ar
    15     7    16    1
    16     8     9   ar
    17     8    17    1
    18     9    10   ar
    19    10    18    1
