@<TRIPOS>MOLECULE
***** 
18 19 0 0 0
SMALL
USER_CHARGES
#CGenFF output mol2 file
@<TRIPOS>ATOM
1	C1     2.4310    -0.6960    -0.0090	C.ar	1	UNL1    -0.1100
2	C2     2.4320     0.6950    -0.0040	C.ar	1	UNL1    -0.1100
3	C3     1.2230     1.3930     0.0050	C.ar	1	UNL1    -0.1200
4	C4    -0.0020     0.7070     0.0040	C.ar	1	UNL1     0.0000
5	C5    -1.2270     1.3940    -0.0020	C.ar	1	UNL1    -0.1200
6	C6    -2.4360     0.6970    -0.0100	C.ar	1	UNL1    -0.1100
7	C7    -2.4370    -0.6950    -0.0050	C.ar	1	UNL1    -0.1100
8	C8    -1.2280    -1.3930     0.0040	C.ar	1	UNL1    -0.1200
9	C9    -0.0030    -0.7070     0.0040	C.ar	1	UNL1     0.0000
10	C10     1.2220    -1.3940    -0.0010	C.ar	1	UNL1    -0.1200
11	H1     3.3720    -1.2410    -0.0200	H	1	UNL1     0.1150
12	H2     3.3730     1.2390    -0.0090	H	1	UNL1     0.1150
13	H3     1.2440     2.4810     0.0100	H	1	UNL1     0.1150
14	H4    -1.2460     2.4810    -0.0050	H	1	UNL1     0.1150
15	H5    -3.3760     1.2420    -0.0220	H	1	UNL1     0.1150
16	H6    -3.3780    -1.2390    -0.0100	H	1	UNL1     0.1150
17	H7    -1.2490    -2.4810     0.0080	H	1	UNL1     0.1150
18	H8     1.2420    -2.4810    -0.0030	H	1	UNL1     0.1150
@<TRIPOS>BOND
1	1	2	2
2	1	10	1
3	1	11	1
4	2	3	1
5	2	12	1
6	3	4	2
7	3	13	1
8	4	5	1
9	4	9	1
10	5	6	2
11	5	14	1
12	6	7	1
13	6	15	1
14	7	8	2
15	7	16	1
16	8	9	1
17	8	17	1
18	9	10	2
19	10	18	1
