@<TRIPOS>MOLECULE
*****
 21 20 0 0 0
SMALL
GASTEIGER

@<TRIPOS>ATOM
      1 C           0.8855    0.0620   -0.0740 C.3     1  UNL1       -0.0652
      2 C           2.4060    0.0837   -0.0466 C.3     1  UNL1       -0.0536
      3 C           2.9669   -1.0788    0.7773 C.3     1  UNL1       -0.0271
      4 C           4.5008   -1.0852    0.8013 C.3     1  UNL1        0.0550
      5 O           4.9754    0.1201    1.3968 O.3     1  UNL1       -0.3918
      6 C           5.0360   -2.2904    1.5830 C.3     1  UNL1       -0.0297
      7 C           6.5579   -2.3481    1.5879 C.3     1  UNL1       -0.0629
      8 H           0.5052    0.8997   -0.6669 H       1  UNL1        0.0230
      9 H           0.4741    0.1470    0.9369 H       1  UNL1        0.0230
     10 H           0.5140   -0.8662   -0.5198 H       1  UNL1        0.0230
     11 H           2.7394    1.0404    0.3709 H       1  UNL1        0.0263
     12 H           2.7850    0.0273   -1.0736 H       1  UNL1        0.0263
     13 H           2.6021   -2.0273    0.3647 H       1  UNL1        0.0290
     14 H           2.5840   -0.9972    1.8026 H       1  UNL1        0.0290
     15 H           4.8833   -1.1158   -0.2254 H       1  UNL1        0.0593
     16 H           4.6382    0.1549    2.3083 H       1  UNL1        0.2098
     17 H           4.6455   -3.2181    1.1490 H       1  UNL1        0.0287
     18 H           4.6927   -2.2425    2.6236 H       1  UNL1        0.0287
     19 H           6.9512   -2.3980    0.5677 H       1  UNL1        0.0231
     20 H           6.8993   -3.2374    2.1272 H       1  UNL1        0.0231
     21 H           6.9885   -1.4711    2.0812 H       1  UNL1        0.0231
@<TRIPOS>BOND
     1     1     2    1
     2     1     8    1
     3     1     9    1
     4     1    10    1
     5     2     3    1
     6     2    11    1
     7     2    12    1
     8     3     4    1
     9     3    13    1
    10     3    14    1
    11     4     5    1
    12     4     6    1
    13     4    15    1
    14     5    16    1
    15     6     7    1
    16     6    17    1
    17     6    18    1
    18     7    19    1
    19     7    20    1
    20     7    21    1
