@<TRIPOS>MOLECULE
*****
 24 23 0 0 0
SMALL
GASTEIGER

@<TRIPOS>ATOM
      1 C           1.0744    0.2714    0.1609 C.3     1  UNL1       -0.0627
      2 C           2.5809    0.0880    0.0128 C.3     1  UNL1       -0.0269
      3 C           3.0234   -1.1406   -0.8212 C.3     1  UNL1        0.0654
      4 O           2.5865   -2.3212   -0.1307 O.3     1  UNL1       -0.3886
      5 C           2.4072   -1.1757   -2.2385 C.3     1  UNL1       -0.0269
      6 C           2.8082   -0.0258   -3.1506 C.3     1  UNL1       -0.0627
      7 C           4.5715   -1.1837   -0.8316 C.3     1  UNL1       -0.0269
      8 C           5.1746   -2.3760   -1.5668 C.3     1  UNL1       -0.0627
      9 H           0.8681    1.1201    0.8217 H       1  UNL1        0.0231
     10 H           0.6009   -0.6113    0.6000 H       1  UNL1        0.0231
     11 H           0.5978    0.4833   -0.8002 H       1  UNL1        0.0231
     12 H           2.9909   -0.0089    1.0270 H       1  UNL1        0.0290
     13 H           3.0053    1.0058   -0.4110 H       1  UNL1        0.0290
     14 H           1.6207   -2.3872   -0.2179 H       1  UNL1        0.2102
     15 H           1.3128   -1.2043   -2.1659 H       1  UNL1        0.0290
     16 H           2.6614   -2.1248   -2.7273 H       1  UNL1        0.0290
     17 H           2.5306    0.9427   -2.7257 H       1  UNL1        0.0231
     18 H           2.2990   -0.1222   -4.1152 H       1  UNL1        0.0231
     19 H           3.8842   -0.0247   -3.3467 H       1  UNL1        0.0231
     20 H           4.9305   -1.2338    0.2051 H       1  UNL1        0.0290
     21 H           4.9775   -0.2597   -1.2597 H       1  UNL1        0.0290
     22 H           4.7960   -3.3237   -1.1724 H       1  UNL1        0.0231
     23 H           6.2631   -2.3746   -1.4466 H       1  UNL1        0.0231
     24 H           4.9643   -2.3358   -2.6393 H       1  UNL1        0.0231
@<TRIPOS>BOND
     1     1     2    1
     2     1     9    1
     3     1    10    1
     4     1    11    1
     5     2     3    1
     6     2    12    1
     7     2    13    1
     8     3     4    1
     9     3     5    1
    10     3     7    1
    11     4    14    1
    12     5     6    1
    13     5    15    1
    14     5    16    1
    15     6    17    1
    16     6    18    1
    17     6    19    1
    18     7     8    1
    19     7    20    1
    20     7    21    1
    21     8    22    1
    22     8    23    1
    23     8    24    1
