@<TRIPOS>MOLECULE
*****
 14 13 0 0 0
SMALL
GASTEIGER

@<TRIPOS>ATOM
      1 C           0.9282   -0.0821    0.0346 C.3     1  UNL1       -0.0157
      2 N           2.3816   -0.0687   -0.0973 N.3     1  UNL1       -0.3168
      3 C           2.8894    1.3128   -0.0483 C.3     1  UNL1        0.0188
      4 C           4.4221    1.3317   -0.0213 C.3     1  UNL1        0.0567
      5 O           4.9546    0.5830   -1.1117 O.3     1  UNL1       -0.3938
      6 H           0.5689   -1.1149   -0.0084 H       1  UNL1        0.0388
      7 H           0.4472    0.4763   -0.7752 H       1  UNL1        0.0388
      8 H           0.6134    0.3366    0.9959 H       1  UNL1        0.0388
      9 H           2.6183   -0.4571   -1.0119 H       1  UNL1        0.1217
     10 H           2.5177    1.8338    0.8413 H       1  UNL1        0.0446
     11 H           2.5391    1.8515   -0.9369 H       1  UNL1        0.0446
     12 H           4.8079    0.9063    0.9115 H       1  UNL1        0.0570
     13 H           4.7870    2.3600   -0.1039 H       1  UNL1        0.0570
     14 H           4.7356   -0.3453   -0.9123 H       1  UNL1        0.2095
@<TRIPOS>BOND
     1     1     2    1
     2     1     6    1
     3     1     7    1
     4     1     8    1
     5     2     3    1
     6     2     9    1
     7     3     4    1
     8     3    10    1
     9     3    11    1
    10     4     5    1
    11     4    12    1
    12     4    13    1
    13     5    14    1
