@<TRIPOS>MOLECULE
*****
 31 30 0 0 0
SMALL
GASTEIGER

@<TRIPOS>ATOM
      1 O           0.9301   -0.0683    0.0264 O.3     1  UNL1       -0.3927
      2 C           2.3516   -0.0707    0.0595 C.3     1  UNL1        0.0676
      3 C           2.8443   -0.1182    1.5004 C.3     1  UNL1        0.0708
      4 O           4.2720   -0.1209    1.5121 O.3     1  UNL1       -0.3752
      5 C           4.7787   -0.1646    2.8461 C.3     1  UNL1        0.0711
      6 C           6.3031   -0.1659    2.8117 C.3     1  UNL1        0.0711
      7 O           6.8047   -0.2104    4.1476 O.3     1  UNL1       -0.3752
      8 C           8.2316   -0.2179    4.1710 C.3     1  UNL1        0.0711
      9 C           8.7089   -0.2609    5.6185 C.3     1  UNL1        0.0711
     10 O          10.1368   -0.2774    5.6515 O.3     1  UNL1       -0.3752
     11 C          10.6239   -0.3112    7.0003 C.3     1  UNL1        0.0708
     12 C          12.1476   -0.3432    6.9525 C.3     1  UNL1        0.0676
     13 O          12.6340    0.8280    6.2989 O.3     1  UNL1       -0.3927
     14 H           0.6715   -0.0362   -0.9110 H       1  UNL1        0.2095
     15 H           2.7227    0.8299   -0.4412 H       1  UNL1        0.0580
     16 H           2.7209   -0.9375   -0.4989 H       1  UNL1        0.0580
     17 H           2.4620   -1.0199    1.9938 H       1  UNL1        0.0583
     18 H           2.4648    0.7508    2.0511 H       1  UNL1        0.0583
     19 H           4.4190   -1.0668    3.3553 H       1  UNL1        0.0583
     20 H           4.4216    0.7038    3.4126 H       1  UNL1        0.0583
     21 H           6.6642    0.7367    2.3042 H       1  UNL1        0.0583
     22 H           6.6613   -1.0342    2.2459 H       1  UNL1        0.0583
     23 H           8.6216    0.6804    3.6777 H       1  UNL1        0.0583
     24 H           8.6126   -1.0909    3.6275 H       1  UNL1        0.0583
     25 H           8.3125   -1.1559    6.1129 H       1  UNL1        0.0583
     26 H           8.3307    0.6149    6.1594 H       1  UNL1        0.0583
     27 H          10.2436   -1.2017    7.5118 H       1  UNL1        0.0583
     28 H          10.2841    0.5916    7.5199 H       1  UNL1        0.0583
     29 H          12.5023   -1.2094    6.3853 H       1  UNL1        0.0580
     30 H          12.5704   -0.3780    7.9603 H       1  UNL1        0.0580
     31 H          12.1018    0.9041    5.4831 H       1  UNL1        0.2095
@<TRIPOS>BOND
     1     1     2    1
     2     1    14    1
     3     2     3    1
     4     2    15    1
     5     2    16    1
     6     3     4    1
     7     3    17    1
     8     3    18    1
     9     4     5    1
    10     5     6    1
    11     5    19    1
    12     5    20    1
    13     6     7    1
    14     6    21    1
    15     6    22    1
    16     7     8    1
    17     8     9    1
    18     8    23    1
    19     8    24    1
    20     9    10    1
    21     9    25    1
    22     9    26    1
    23    10    11    1
    24    11    12    1
    25    11    27    1
    26    11    28    1
    27    12    13    1
    28    12    29    1
    29    12    30    1
    30    13    31    1
