@<TRIPOS>MOLECULE
*****
 21 21 0 0 0
SMALL
GASTEIGER

@<TRIPOS>ATOM
      1 C           0.9260   -0.0230    0.1800 C.3     1  UNL1       -0.0134
      2 C           2.4260   -0.1030   -0.0930 C.3     1  UNL1        0.1623
      3 O           2.8620    0.8640   -1.0360 O.3     1  UNL1       -0.3232
      4 C           2.5320    0.4840   -2.3610 C.3     1  UNL1        0.1623
      5 C           3.1620    1.4920   -3.3080 C.3     1  UNL1       -0.0134
      6 O           3.0430   -0.8010   -2.6720 O.3     1  UNL1       -0.3232
      7 C           2.5120   -1.7460   -1.7610 C.3     1  UNL1        0.1623
      8 C           3.1120   -3.1060   -2.0750 C.3     1  UNL1       -0.0134
      9 O           2.8470   -1.4170   -0.4240 O.3     1  UNL1       -0.3232
     10 H           0.6500    0.9820    0.5140 H       1  UNL1        0.0278
     11 H           0.6350   -0.7520    0.9420 H       1  UNL1        0.0278
     12 H           0.3280   -0.2360   -0.7110 H       1  UNL1        0.0278
     13 H           2.9300    0.1450    0.8480 H       1  UNL1        0.0909
     14 H           1.4460    0.5070   -2.5110 H       1  UNL1        0.0909
     15 H           4.2540    1.4870   -3.2110 H       1  UNL1        0.0278
     16 H           2.8180    2.5070   -3.0860 H       1  UNL1        0.0278
     17 H           2.9250    1.2500   -4.3490 H       1  UNL1        0.0278
     18 H           1.4230   -1.8180   -1.8800 H       1  UNL1        0.0909
     19 H           4.2050   -3.0740   -1.9990 H       1  UNL1        0.0278
     20 H           2.8630   -3.4170   -3.0940 H       1  UNL1        0.0278
     21 H           2.7560   -3.8630   -1.3690 H       1  UNL1        0.0278
@<TRIPOS>BOND
     1     1     2    1
     2     1    10    1
     3     1    11    1
     4     1    12    1
     5     2     3    1
     6     2     9    1
     7     2    13    1
     8     3     4    1
     9     4     5    1
    10     4     6    1
    11     4    14    1
    12     5    15    1
    13     5    16    1
    14     5    17    1
    15     6     7    1
    16     7     8    1
    17     7     9    1
    18     7    18    1
    19     8    19    1
    20     8    20    1
    21     8    21    1
