@<TRIPOS>MOLECULE
***** 
21 21 0 0 0
SMALL
USER_CHARGES
#CGenFF output mol2 file
@<TRIPOS>ATOM
1	C1     0.9260    -0.0230     0.1800	C.3	1	UNL1    -0.1690
2	C2     2.4260    -0.1030    -0.0930	C.3	1	UNL1     0.1850
3	O1     2.8620     0.8640    -1.0360	O.3	1	UNL1    -0.3760
4	C3     2.5320     0.4840    -2.3610	C.3	1	UNL1     0.1850
5	C4     3.1620     1.4920    -3.3080	C.3	1	UNL1    -0.1690
6	O2     3.0430    -0.8010    -2.6720	O.3	1	UNL1    -0.3760
7	C5     2.5120    -1.7460    -1.7610	C.3	1	UNL1     0.1850
8	C6     3.1120    -3.1060    -2.0750	C.3	1	UNL1    -0.1690
9	O3     2.8470    -1.4170    -0.4240	O.3	1	UNL1    -0.3760
10	H1     0.6500     0.9820     0.5140	H	1	UNL1     0.0900
11	H2     0.6350    -0.7520     0.9420	H	1	UNL1     0.0900
12	H3     0.3280    -0.2360    -0.7110	H	1	UNL1     0.0900
13	H4     2.9300     0.1450     0.8480	H	1	UNL1     0.0900
14	H5     1.4460     0.5070    -2.5110	H	1	UNL1     0.0900
15	H6     4.2540     1.4870    -3.2110	H	1	UNL1     0.0900
16	H7     2.8180     2.5070    -3.0860	H	1	UNL1     0.0900
17	H8     2.9250     1.2500    -4.3490	H	1	UNL1     0.0900
18	H9     1.4230    -1.8180    -1.8800	H	1	UNL1     0.0900
19	H10     4.2050    -3.0740    -1.9990	H	1	UNL1     0.0900
20	H11     2.8630    -3.4170    -3.0940	H	1	UNL1     0.0900
21	H12     2.7560    -3.8630    -1.3690	H	1	UNL1     0.0900
@<TRIPOS>BOND
1	1	2	1
2	1	10	1
3	1	11	1
4	1	12	1
5	2	3	1
6	2	9	1
7	2	13	1
8	3	4	1
9	4	5	1
10	4	6	1
11	4	14	1
12	5	15	1
13	5	16	1
14	5	17	1
15	6	7	1
16	7	8	1
17	7	9	1
18	7	18	1
19	8	19	1
20	8	20	1
21	8	21	1
