@<TRIPOS>MOLECULE
***** 
26 27 0 0 0
SMALL
USER_CHARGES
#CGenFF output mol2 file
@<TRIPOS>ATOM
1	N1     2.3850    -0.0700    -0.1450	N.pl3	1	UNL1    -0.8240
2	C1     1.0030    -0.0290     0.0720	C.ar	1	UNL1     0.0900
3	C2     0.3370     1.1940     0.0890	C.ar	1	UNL1    -0.0920
4	C3    -1.0560     1.2430     0.1320	C.ar	1	UNL1    -0.1180
5	C4    -1.8240     0.0720     0.0900	C.ar	1	UNL1    -0.0410
6	N2    -3.2320     0.1310     0.0320	N.pl3	1	UNL1    -0.3220
7	C5    -4.0020     1.0930    -0.6610	C.ar	1	UNL1    -0.0410
8	C6    -3.5240     1.7320    -1.8160	C.ar	1	UNL1    -0.1160
9	C7    -4.2690     2.7290    -2.4450	C.ar	1	UNL1    -0.1080
10	C8    -5.5140     3.0870    -1.9370	C.ar	1	UNL1    -0.1150
11	C9    -6.0200     2.4320    -0.8140	C.ar	1	UNL1    -0.1080
12	C10    -5.2720     1.4320    -0.1870	C.ar	1	UNL1    -0.1160
13	C11    -1.1580    -1.1560     0.0690	C.ar	1	UNL1    -0.1180
14	C12     0.2430    -1.2020     0.0340	C.ar	1	UNL1    -0.0920
15	H1     2.8740     0.7600     0.1710	H	1	UNL1     0.3530
16	H2     2.8250    -0.9270     0.1740	H	1	UNL1     0.3530
17	H3     0.8940     2.1270     0.0580	H	1	UNL1     0.1150
18	H4    -1.5460     2.2130     0.1750	H	1	UNL1     0.1150
19	H5    -3.6940    -0.7710     0.0670	H	1	UNL1     0.3800
20	H6    -2.5590     1.4580    -2.2340	H	1	UNL1     0.1150
21	H7    -3.8700     3.2260    -3.3250	H	1	UNL1     0.1150
22	H8    -6.0880     3.8760    -2.4150	H	1	UNL1     0.1150
23	H9    -6.9920     2.7120    -0.4170	H	1	UNL1     0.1150
24	H10    -5.6670     0.9500     0.7040	H	1	UNL1     0.1150
25	H11    -1.7140    -2.0880     0.0360	H	1	UNL1     0.1150
26	H12     0.7350    -2.1670    -0.0410	H	1	UNL1     0.1150
@<TRIPOS>BOND
1	1	2	1
2	1	15	1
3	1	16	1
4	2	3	2
5	2	14	1
6	3	4	1
7	3	17	1
8	4	5	2
9	4	18	1
10	5	6	1
11	5	13	1
12	6	7	1
13	6	19	1
14	7	8	2
15	7	12	1
16	8	9	1
17	8	20	1
18	9	10	2
19	9	21	1
20	10	11	1
21	10	22	1
22	11	12	2
23	11	23	1
24	12	24	1
25	13	14	2
26	13	25	1
27	14	26	1
