@<TRIPOS>MOLECULE
*****
 25 24 0 0 0
SMALL
GASTEIGER

@<TRIPOS>ATOM
      1 C           4.5770   -1.1606    0.9548 C.3     1  UNL1       -0.0368
      2 C           4.1472   -1.0883   -0.5046 C.3     1  UNL1        0.0757
      3 O           2.7311   -0.8923   -0.5460 O.3     1  UNL1       -0.3898
      4 C           4.8348    0.0550   -1.2648 C.3     1  UNL1        0.0740
      5 O           4.4729    1.2931   -0.6435 O.3     1  UNL1       -0.3716
      6 C           5.0405    2.4907   -1.1965 C.3     1  UNL1        0.0613
      7 C           4.5819    2.7154   -2.6417 C.3     1  UNL1       -0.0363
      8 C           4.4953    3.6286   -0.3216 C.3     1  UNL1       -0.0363
      9 C           6.5709    2.4873   -1.1023 C.3     1  UNL1       -0.0363
     10 H           4.0850   -2.0036    1.4520 H       1  UNL1        0.0255
     11 H           4.2810   -0.2610    1.5054 H       1  UNL1        0.0255
     12 H           5.6600   -1.2880    1.0438 H       1  UNL1        0.0255
     13 H           4.3663   -2.0407   -0.9985 H       1  UNL1        0.0613
     14 H           2.5959    0.0473   -0.3115 H       1  UNL1        0.2099
     15 H           4.4796    0.0543   -2.2997 H       1  UNL1        0.0586
     16 H           5.9184   -0.0898   -1.2435 H       1  UNL1        0.0586
     17 H           3.4929    2.6266   -2.7234 H       1  UNL1        0.0257
     18 H           5.0128    1.9724   -3.3210 H       1  UNL1        0.0257
     19 H           4.8796    3.7045   -3.0064 H       1  UNL1        0.0257
     20 H           3.3994    3.6466   -0.3442 H       1  UNL1        0.0257
     21 H           4.8638    4.6068   -0.6480 H       1  UNL1        0.0257
     22 H           4.7806    3.4839    0.7271 H       1  UNL1        0.0257
     23 H           7.0151    1.7599   -1.7899 H       1  UNL1        0.0257
     24 H           6.8989    2.2134   -0.0934 H       1  UNL1        0.0257
     25 H           6.9892    3.4685   -1.3514 H       1  UNL1        0.0257
@<TRIPOS>BOND
     1     1     2    1
     2     1    10    1
     3     1    11    1
     4     1    12    1
     5     2     3    1
     6     2     4    1
     7     2    13    1
     8     3    14    1
     9     4     5    1
    10     4    15    1
    11     4    16    1
    12     5     6    1
    13     6     7    1
    14     6     8    1
    15     6     9    1
    16     7    17    1
    17     7    18    1
    18     7    19    1
    19     8    20    1
    20     8    21    1
    21     8    22    1
    22     9    23    1
    23     9    24    1
    24     9    25    1
