@<TRIPOS>MOLECULE
***** 
33 33 0 0 0
SMALL
USER_CHARGES
#CGenFF output mol2 file
@<TRIPOS>ATOM
1	C1     4.8050    -2.5950    -1.4640	C.3	1	UNL1    -0.2730
2	C2     4.3500    -1.3360    -0.7490	C.3	1	UNL1    -0.1770
3	C3     4.8800    -1.2960     0.6730	C.3	1	UNL1    -0.1810
4	C4     4.4420    -0.0270     1.4100	C.3	1	UNL1    -0.1740
5	C5     4.9800     0.0150     2.8420	C.3	1	UNL1    -0.1650
6	C6     6.5130    -0.0030     2.8800	C.3	1	UNL1    -0.2000
7	C7     7.0580     0.0220     4.3000	C.3	1	UNL1    -0.0920
8	C8     8.5840     0.0030     4.3520	C.3	1	UNL1    -0.1800
9	C9     8.9160    -0.4980     5.7570	C.3	1	UNL1    -0.1790
10	C10     7.6530    -1.1790     6.2830	C.3	1	UNL1    -0.1790
11	C11     6.6880    -1.2180     5.1100	C.3	1	UNL1    -0.1800
12	H1     4.4160    -2.6100    -2.4860	H	1	UNL1     0.0900
13	H2     4.4480    -3.4920    -0.9490	H	1	UNL1     0.0900
14	H3     5.8970    -2.6430    -1.5180	H	1	UNL1     0.0900
15	H4     3.2560    -1.2980    -0.7420	H	1	UNL1     0.0900
16	H5     4.7040    -0.4570    -1.2990	H	1	UNL1     0.0900
17	H6     5.9710    -1.3500     0.6230	H	1	UNL1     0.0900
18	H7     4.5380    -2.1770     1.2330	H	1	UNL1     0.0900
19	H8     3.3470     0.0230     1.4410	H	1	UNL1     0.0900
20	H9     4.7870     0.8600     0.8650	H	1	UNL1     0.0900
21	H10     4.5760    -0.8400     3.3920	H	1	UNL1     0.0900
22	H11     4.6120     0.9180     3.3390	H	1	UNL1     0.0900
23	H12     6.8990     0.8490     2.3070	H	1	UNL1     0.0900
24	H13     6.8910    -0.9100     2.3910	H	1	UNL1     0.0900
25	H14     6.6910     0.9220     4.8150	H	1	UNL1     0.0900
26	H15     9.0160     0.9890     4.1560	H	1	UNL1     0.0900
27	H16     8.9950    -0.6920     3.6080	H	1	UNL1     0.0900
28	H17     9.1940     0.3370     6.4120	H	1	UNL1     0.0900
29	H18     9.7630    -1.1910     5.7310	H	1	UNL1     0.0900
30	H19     7.2250    -0.5840     7.0980	H	1	UNL1     0.0900
31	H20     7.8550    -2.1800     6.6740	H	1	UNL1     0.0900
32	H21     5.6460    -1.2090     5.4420	H	1	UNL1     0.0900
33	H22     6.8490    -2.1310     4.5210	H	1	UNL1     0.0900
@<TRIPOS>BOND
1	1	2	1
2	1	12	1
3	1	13	1
4	1	14	1
5	2	3	1
6	2	15	1
7	2	16	1
8	3	4	1
9	3	17	1
10	3	18	1
11	4	5	1
12	4	19	1
13	4	20	1
14	5	6	1
15	5	21	1
16	5	22	1
17	6	7	1
18	6	23	1
19	6	24	1
20	7	8	1
21	7	11	1
22	7	25	1
23	8	9	1
24	8	26	1
25	8	27	1
26	9	10	1
27	9	28	1
28	9	29	1
29	10	11	1
30	10	30	1
31	10	31	1
32	11	32	1
33	11	33	1
