@<TRIPOS>MOLECULE
*****
 21 20 0 0 0
SMALL
GASTEIGER

@<TRIPOS>ATOM
      1 C           1.0907    0.1459   -0.1363 C.3     1  UNL1       -0.0650
      2 C           2.6015   -0.0155   -0.0483 C.3     1  UNL1       -0.0510
      3 C           3.0523   -1.3595    0.5569 C.3     1  UNL1       -0.0183
      4 C           2.5131   -2.6007   -0.1877 C.3     1  UNL1       -0.0510
      5 C           2.9727   -2.7379   -1.6323 C.3     1  UNL1       -0.0650
      6 C           4.5850   -1.3712    0.6845 C.3     1  UNL1        0.0470
      7 O           5.0412   -2.5717    1.2932 O.3     1  UNL1       -0.3947
      8 H           0.8401    1.1671   -0.4413 H       1  UNL1        0.0230
      9 H           0.6167   -0.0439    0.8318 H       1  UNL1        0.0230
     10 H           0.6571   -0.5330   -0.8763 H       1  UNL1        0.0230
     11 H           2.9921    0.7990    0.5753 H       1  UNL1        0.0266
     12 H           3.0377    0.1242   -1.0441 H       1  UNL1        0.0266
     13 H           2.6437   -1.4211    1.5755 H       1  UNL1        0.0323
     14 H           1.4171   -2.5932   -0.1665 H       1  UNL1        0.0266
     15 H           2.8084   -3.5061    0.3570 H       1  UNL1        0.0266
     16 H           2.6826   -1.8718   -2.2334 H       1  UNL1        0.0230
     17 H           2.5144   -3.6235   -2.0849 H       1  UNL1        0.0230
     18 H           4.0577   -2.8603   -1.6977 H       1  UNL1        0.0230
     19 H           4.9285   -0.5322    1.2994 H       1  UNL1        0.0560
     20 H           5.0695   -1.2803   -0.2927 H       1  UNL1        0.0560
     21 H           4.6160   -2.6371    2.1650 H       1  UNL1        0.2094
@<TRIPOS>BOND
     1     1     2    1
     2     1     8    1
     3     1     9    1
     4     1    10    1
     5     2     3    1
     6     2    11    1
     7     2    12    1
     8     3     4    1
     9     3     6    1
    10     3    13    1
    11     4     5    1
    12     4    14    1
    13     4    15    1
    14     5    16    1
    15     5    17    1
    16     5    18    1
    17     6     7    1
    18     6    19    1
    19     6    20    1
    20     7    21    1
