@<TRIPOS>MOLECULE
*****
 33 32 0 0 0
SMALL
GASTEIGER

@<TRIPOS>ATOM
      1 C           0.9214   -0.0348   -0.0981 C.3     1  UNL1       -0.0653
      2 C           2.4418   -0.0352   -0.0769 C.3     1  UNL1       -0.0559
      3 C           2.9822   -0.7830    1.1413 C.3     1  UNL1       -0.0533
      4 C           4.5118   -0.7851    1.1651 C.3     1  UNL1       -0.0531
      5 C           5.0416   -1.5327    2.3896 C.3     1  UNL1       -0.0531
      6 C           6.5707   -1.5377    2.4292 C.3     1  UNL1       -0.0530
      7 C           7.0854   -2.2762    3.6666 C.3     1  UNL1       -0.0507
      8 C           8.6163   -2.2753    3.7253 C.3     1  UNL1       -0.0271
      9 C           9.1431   -3.0241    4.9544 C.3     1  UNL1        0.0524
     10 C          10.6649   -3.0639    4.9766 C.3     1  UNL1       -0.0389
     11 O           8.6866   -2.3911    6.1471 O.3     1  UNL1       -0.3921
     12 H           0.5542    0.5047   -0.9767 H       1  UNL1        0.0230
     13 H           0.5168    0.4535    0.7942 H       1  UNL1        0.0230
     14 H           0.5295   -1.0562   -0.1382 H       1  UNL1        0.0230
     15 H           2.8018    1.0002   -0.0687 H       1  UNL1        0.0263
     16 H           2.8145   -0.5016   -0.9962 H       1  UNL1        0.0263
     17 H           2.6141   -1.8162    1.1306 H       1  UNL1        0.0265
     18 H           2.6017   -0.3146    2.0573 H       1  UNL1        0.0265
     19 H           4.8811    0.2476    1.1759 H       1  UNL1        0.0265
     20 H           4.8941   -1.2564    0.2516 H       1  UNL1        0.0265
     21 H           4.6722   -2.5654    2.3771 H       1  UNL1        0.0265
     22 H           4.6534   -1.0622    3.3013 H       1  UNL1        0.0265
     23 H           6.9420   -0.5057    2.4356 H       1  UNL1        0.0265
     24 H           6.9617   -2.0174    1.5238 H       1  UNL1        0.0265
     25 H           6.7209   -3.3106    3.6539 H       1  UNL1        0.0266
     26 H           6.6778   -1.8009    4.5668 H       1  UNL1        0.0266
     27 H           8.9650   -1.2352    3.7504 H       1  UNL1        0.0290
     28 H           9.0177   -2.7356    2.8145 H       1  UNL1        0.0290
     29 H           8.7573   -4.0494    4.9598 H       1  UNL1        0.0590
     30 H          11.0847   -2.0524    5.0088 H       1  UNL1        0.0254
     31 H          11.0621   -3.5805    4.0977 H       1  UNL1        0.0254
     32 H          11.0193   -3.5799    5.8755 H       1  UNL1        0.0254
     33 H           9.0094   -1.4738    6.1406 H       1  UNL1        0.2098
@<TRIPOS>BOND
     1     1     2    1
     2     1    12    1
     3     1    13    1
     4     1    14    1
     5     2     3    1
     6     2    15    1
     7     2    16    1
     8     3     4    1
     9     3    17    1
    10     3    18    1
    11     4     5    1
    12     4    19    1
    13     4    20    1
    14     5     6    1
    15     5    21    1
    16     5    22    1
    17     6     7    1
    18     6    23    1
    19     6    24    1
    20     7     8    1
    21     7    25    1
    22     7    26    1
    23     8     9    1
    24     8    27    1
    25     8    28    1
    26     9    10    1
    27     9    11    1
    28     9    29    1
    29    10    30    1
    30    10    31    1
    31    10    32    1
    32    11    33    1
